Version 4
SHEET 1 880 680
WIRE 448 160 384 160
WIRE 448 224 448 160
WIRE 448 224 400 224
WIRE 384 240 320 240
WIRE 480 256 448 256
WIRE 400 288 400 224
WIRE 480 288 400 288
WIRE 544 288 544 272
WIRE 544 288 528 288
WIRE 544 304 544 288
WIRE 448 320 448 256
WIRE 496 320 448 320
WIRE 320 352 320 240
WIRE 400 352 320 352
WIRE 496 352 496 320
WIRE 496 352 480 352
WIRE 496 384 496 352
WIRE 544 384 496 384
WIRE 320 464 320 352
FLAG 320 464 0
FLAG 544 272 Vout
SYMBOL Opamps/LT1001A 512 208 R0
SYMATTR InstName U1
SYMBOL voltage 384 144 R0
SYMATTR InstName V1
SYMATTR Value 1
SYMBOL res 528 288 R0
SYMATTR InstName R1
SYMATTR Value 9k
SYMBOL res 496 336 R90
WINDOW 0 0 56 VBottom 2
WINDOW 3 32 56 VTop 2
SYMATTR InstName R2
SYMATTR Value 1k
TEXT 104 168 Left 2 !.tran 0.001 0.01
