Version 4
SHEET 1 880 680
WIRE 544 144 512 144
WIRE 240 176 160 176
WIRE 512 176 512 144
WIRE 512 176 384 176
WIRE 544 176 544 144
WIRE 160 240 160 176
WIRE 384 240 288 240
WIRE 240 272 240 176
WIRE 288 272 288 240
WIRE 288 272 240 272
WIRE 224 304 192 304
WIRE 192 320 192 304
WIRE 192 320 160 320
WIRE 224 368 224 304
WIRE 480 368 224 368
WIRE 480 384 480 368
WIRE 544 384 544 256
WIRE 544 384 480 384
FLAG 160 320 0
SYMBOL voltage 160 224 R0
WINDOW 3 -422 222 Left 2
SYMATTR Value PULSE(0 5 0 0.0000001 0.0000001 0.000008 0.000016)
SYMATTR InstName V1
SYMBOL ind 528 160 R0
SYMATTR InstName L1
SYMATTR Value 700µH
SYMATTR SpiceLine Rser=0.183
SYMBOL cap 368 176 R0
SYMATTR InstName Cs1
SYMATTR Value 10nF
TEXT 136 152 Left 2 !.tran 0 0.0005 0.00001
