Version 4
SHEET 1 880 680
WIRE 656 160 160 160
WIRE 656 224 656 160
WIRE 576 272 576 224
WIRE 672 272 576 272
WIRE 416 336 384 336
WIRE 480 336 432 336
WIRE 416 352 416 336
WIRE 480 352 416 352
WIRE 304 368 224 368
WIRE 384 368 384 336
WIRE 480 368 464 368
WIRE 688 368 544 368
WIRE 560 384 544 384
WIRE 672 384 672 272
WIRE 672 384 560 384
WIRE 480 416 480 384
WIRE 560 416 560 384
WIRE 560 416 480 416
WIRE 432 432 432 336
WIRE 432 432 416 432
WIRE 688 432 688 368
WIRE 688 432 640 432
WIRE 464 448 464 368
WIRE 640 448 640 432
WIRE 160 464 160 160
WIRE 224 464 224 448
WIRE 224 464 160 464
WIRE 224 496 224 464
WIRE 416 496 416 432
WIRE 416 496 224 496
WIRE 224 560 224 496
WIRE 256 560 224 560
WIRE 464 560 464 528
WIRE 464 560 256 560
WIRE 640 560 640 528
WIRE 640 560 464 560
FLAG 256 560 0
SYMBOL voltage 560 224 R270
WINDOW 0 32 56 VTop 2
WINDOW 3 -32 56 VBottom 2
SYMATTR InstName V1
SYMATTR Value 3.3
SYMBOL res 400 352 R90
WINDOW 0 0 56 VBottom 2
WINDOW 3 32 56 VTop 2
SYMATTR InstName R1
SYMATTR Value 1k
SYMBOL voltage 224 352 R0
SYMATTR InstName V2
SYMATTR Value PULSE(0 24 0 0 0 0.025 0.05)
SYMBOL res 624 432 R0
SYMATTR InstName R2
SYMATTR Value 1k
SYMBOL OptoElec/Hcnr200 512 368 R0
SYMATTR InstName U2
SYMBOL res 448 432 R0
SYMATTR InstName R3
SYMATTR Value 100
TEXT 304 56 Left 2 !.tran 0.1
