Version 4
SHEET 1 880 680
SYMBOL njf 240 64 R0
SYMATTR InstName J2
