Version 4
SHEET 1 880 680
WIRE 448 160 384 160
WIRE 384 240 320 240
WIRE 448 240 400 240
WIRE 480 240 448 240
WIRE 512 272 448 272
WIRE 400 288 400 240
WIRE 416 288 400 288
WIRE 560 304 560 240
WIRE 560 304 480 304
WIRE 320 320 320 240
WIRE 416 320 320 320
WIRE 320 464 320 320
FLAG 320 464 0
FLAG 480 304 Vout
SYMBOL voltage 384 144 R0
SYMATTR InstName V1
SYMATTR Value SINE(1 1 50)
SYMBOL res 432 144 R0
SYMATTR InstName R1
SYMATTR Value 1000
SYMBOL res 576 224 R90
WINDOW 0 0 56 VBottom 2
WINDOW 3 32 56 VTop 2
SYMATTR InstName R2
SYMATTR Value 10000
SYMBOL LT1006S8 448 240 R0
WINDOW 0 170 -10 Left 2
SYMATTR InstName U2
TEXT 104 168 Left 2 !.tran 0.001 0.01
