Version 4
SHEET 1 1224 680
WIRE 736 176 672 176
WIRE 336 256 272 256
WIRE 464 256 416 256
WIRE 576 256 464 256
WIRE 608 256 576 256
WIRE 672 256 672 240
WIRE 672 288 672 256
WIRE 528 320 464 320
WIRE 464 352 464 320
WIRE 528 352 528 320
WIRE 576 368 576 320
WIRE 672 368 576 368
WIRE 736 368 736 176
WIRE 736 368 672 368
WIRE 272 448 272 336
WIRE 304 448 272 448
WIRE 464 448 464 432
WIRE 464 448 304 448
WIRE 528 448 528 416
WIRE 528 448 464 448
WIRE 576 448 576 368
WIRE 576 448 528 448
FLAG 304 448 0
SYMBOL voltage 272 240 R0
SYMATTR InstName V1
SYMATTR Value SINE(12 12 1000 0 0)
SYMBOL zener 480 320 R180
WINDOW 0 24 64 Left 2
WINDOW 3 24 0 Left 2
SYMATTR InstName D1
SYMATTR Value BZX84C12L
SYMBOL res 656 272 R0
SYMATTR InstName R2
SYMATTR Value 15
SYMBOL Thyr&Triac/Scr_Teccor 560 256 R0
SYMATTR InstName U1
SYMBOL res 432 240 R90
WINDOW 0 0 56 VBottom 2
WINDOW 3 32 56 VTop 2
SYMATTR InstName R1
SYMATTR Value 0.4
SYMBOL res 448 336 R0
SYMATTR InstName R3
SYMATTR Value 1k
SYMBOL cap 512 352 R0
SYMATTR InstName C1
SYMATTR Value 10µ
SYMBOL cap 656 176 R0
SYMATTR InstName C2
SYMATTR Value 2200µ
SYMBOL diode 608 272 R270
WINDOW 0 32 32 VTop 2
WINDOW 3 0 32 VBottom 2
SYMATTR InstName D2
TEXT 312 176 Left 2 !.tran 0.1
