Version 4
SHEET 1 996 680
WIRE -272 -128 -320 -128
WIRE 192 64 112 64
WIRE 544 112 272 112
WIRE 192 160 192 144
WIRE 384 160 192 160
WIRE -320 176 -320 -128
WIRE 16 176 -320 176
WIRE 112 176 112 64
WIRE 192 176 192 160
WIRE 544 192 544 112
WIRE 272 256 272 112
WIRE 272 256 192 256
WIRE 384 272 384 160
WIRE 544 272 544 256
WIRE 544 272 384 272
WIRE 640 272 544 272
WIRE 16 288 16 176
WIRE 64 288 64 240
WIRE 64 288 16 288
WIRE 256 288 64 288
WIRE 640 304 640 272
WIRE 624 368 608 368
WIRE 256 384 256 288
WIRE 304 384 256 384
WIRE 464 384 304 384
WIRE 192 400 192 256
WIRE 192 400 128 400
WIRE 304 400 304 384
WIRE 464 432 464 384
WIRE 544 432 544 368
WIRE 544 432 464 432
WIRE 640 432 624 432
WIRE 704 432 704 304
WIRE 720 432 704 432
WIRE 752 432 720 432
WIRE 832 432 752 432
WIRE 256 448 256 384
WIRE 256 448 192 448
WIRE 464 448 464 432
WIRE 832 496 752 496
WIRE 864 496 832 496
WIRE 128 528 128 400
WIRE 144 528 128 528
WIRE 192 528 144 528
WIRE 192 560 192 528
WIRE 304 560 304 464
WIRE 304 560 192 560
WIRE 544 560 544 496
WIRE 544 560 304 560
WIRE 560 560 544 560
WIRE 624 560 560 560
WIRE 720 560 720 432
WIRE 720 560 704 560
WIRE 560 608 560 560
WIRE 752 608 752 496
WIRE 752 608 560 608
FLAG 144 528 0
SYMBOL voltage 192 432 R0
SYMATTR InstName V1
SYMATTR Value PULSE(0 15 0.1 0.00001 0.00001 0.1 0.2)
SYMBOL voltage 192 160 R0
SYMATTR InstName V2
SYMATTR Value 13.1
SYMBOL diode 640 448 R270
WINDOW 0 32 32 VTop 2
WINDOW 3 0 32 VBottom 2
SYMATTR InstName D1
SYMBOL res 720 544 R90
WINDOW 0 0 56 VBottom 2
WINDOW 3 32 56 VTop 2
SYMATTR InstName R1
SYMATTR Value 15
SYMBOL cap 736 432 R0
SYMATTR InstName C1
SYMATTR Value 10m
SYMBOL diode 640 320 R270
WINDOW 0 32 32 VTop 2
WINDOW 3 0 32 VBottom 2
SYMATTR InstName D2
SYMBOL cap 816 432 R0
SYMATTR InstName C2
SYMATTR Value 10n
SYMBOL cap 288 400 R0
SYMATTR InstName C3
SYMATTR Value 10µ
SYMBOL npn 16 240 R270
SYMATTR InstName Q3
SYMBOL res 176 48 R0
SYMATTR InstName R2
SYMATTR Value 1
SYMBOL cap 528 192 R0
SYMATTR InstName C4
SYMATTR Value 10µ
SYMBOL cap 528 432 R0
SYMATTR InstName C5
SYMATTR Value 10µ
SYMBOL diode 608 368 R0
SYMATTR InstName D3
SYMBOL diode 544 384 R270
WINDOW 0 32 32 VTop 2
WINDOW 3 0 32 VBottom 2
SYMATTR InstName D4
SYMBOL PowerProducts/LT1587 -144 -128 R0
SYMATTR InstName U1
TEXT 480 24 Left 2 !.tran 0.1 1
