Version 4
SHEET 1 880 680
WIRE 544 -112 288 -112
WIRE 544 -80 544 -112
WIRE 624 -80 544 -80
WIRE 208 -64 16 -64
WIRE 288 -64 288 -112
WIRE 624 0 416 0
WIRE 240 16 208 16
WIRE 320 32 288 32
WIRE 16 80 16 -64
WIRE 208 80 16 80
WIRE 320 80 320 32
WIRE 496 80 320 80
WIRE 16 112 16 80
WIRE 272 160 208 160
WIRE 16 224 16 192
WIRE 320 224 320 176
WIRE 320 224 16 224
WIRE 416 224 416 0
WIRE 416 224 320 224
WIRE 496 224 496 160
WIRE 496 224 416 224
WIRE 16 256 16 224
WIRE 224 256 16 256
FLAG 224 256 0
SYMBOL voltage 16 96 R0
WINDOW 123 0 0 Left 2
WINDOW 39 0 0 Left 2
SYMATTR InstName Ven
SYMATTR Value PULSE(0 3 0 0 0 0.01 0.02)
SYMBOL res 480 64 R0
SYMATTR InstName Rload
SYMATTR Value 10k
SYMBOL voltage 624 -96 R0
WINDOW 123 0 0 Left 2
WINDOW 39 0 0 Left 2
SYMATTR InstName V1
SYMATTR Value 3
SYMBOL nmos 272 80 R0
SYMATTR InstName M1
SYMBOL pmos 240 -64 R0
SYMATTR InstName M2
SYMBOL res 192 64 R0
SYMATTR InstName R1
SYMATTR Value 1k
SYMBOL res 192 -80 R0
SYMATTR InstName R2
SYMATTR Value 1k
TEXT -18 280 Left 2 !.tran 0 0.1 0 0.01
