Version 4
SHEET 1 916 680
WIRE 912 -128 432 -128
WIRE 624 -96 320 -96
WIRE 432 -64 432 -128
WIRE 624 -64 624 -96
WIRE 320 -32 320 -96
WIRE 320 -32 96 -32
WIRE 912 -16 912 -128
WIRE 912 -16 816 -16
WIRE 160 16 144 16
WIRE 320 16 240 16
WIRE 432 16 400 16
WIRE 432 32 432 16
WIRE 512 32 432 32
WIRE 96 48 48 48
WIRE 144 48 144 16
WIRE 144 48 96 48
WIRE 912 48 816 48
WIRE 512 80 464 80
WIRE 128 96 96 96
WIRE 144 96 128 96
WIRE 384 96 224 96
WIRE 96 112 96 96
WIRE 128 112 128 96
WIRE 912 112 816 112
WIRE 384 128 384 96
WIRE 512 128 384 128
WIRE 384 144 384 128
WIRE 464 176 464 80
WIRE 864 176 816 176
WIRE 48 192 48 48
WIRE 96 192 48 192
WIRE 128 192 96 192
WIRE 320 192 128 192
WIRE 320 240 320 192
WIRE 464 240 320 240
WIRE 624 240 624 224
WIRE 624 240 464 240
WIRE 384 272 384 224
WIRE 864 272 864 176
WIRE 864 272 384 272
FLAG 48 192 0
SYMBOL voltage 96 96 R0
WINDOW 123 0 0 Left 2
WINDOW 39 24 124 Left 2
SYMATTR InstName V1
SYMATTR Value SINE(0.0002 0.0002 50000000)
SYMATTR SpiceLine Rser=50
SYMBOL voltage 96 -48 R0
WINDOW 123 0 0 Left 2
WINDOW 39 0 0 Left 2
SYMATTR InstName V2
SYMATTR Value 3
SYMBOL res 368 128 R0
SYMATTR InstName R1
SYMATTR Value 100k
SYMBOL res 416 0 R90
WINDOW 0 0 56 VBottom 2
WINDOW 3 32 56 VTop 2
SYMATTR InstName R3
SYMATTR Value 1k
SYMBOL res 256 0 R90
WINDOW 0 0 56 VBottom 2
WINDOW 3 32 56 VTop 2
SYMATTR InstName R4
SYMATTR Value 25.3196406535366997383878
SYMBOL Opamps\\LTC6406 640 80 R0
SYMATTR InstName U1
SYMBOL res 128 80 M90
WINDOW 0 0 56 VBottom 2
WINDOW 3 32 56 VTop 2
SYMATTR InstName R2
SYMATTR Value 1k
SYMBOL cap 448 176 R0
SYMATTR InstName C1
SYMATTR Value 100n
SYMBOL res 416 -80 R0
SYMATTR InstName R7
SYMATTR Value 100k
SYMBOL res 112 96 R0
SYMATTR InstName R8
SYMATTR Value 51.295
TEXT -66 216 Left 2 !.tran 0.000001
