Version 4
SHEET 1 880 680
WIRE 192 -80 144 -80
WIRE 528 -80 480 -80
WIRE 496 16 480 16
WIRE 336 128 336 80
WIRE 336 128 288 128
WIRE 528 144 528 -80
WIRE 576 144 528 144
WIRE 736 144 576 144
WIRE 144 160 144 -80
WIRE 144 160 16 160
WIRE 160 160 144 160
WIRE 208 160 160 160
WIRE 496 192 496 16
WIRE 496 192 320 192
WIRE 208 224 160 224
WIRE 16 240 16 160
WIRE 320 240 320 192
WIRE 576 240 576 224
WIRE 576 240 320 240
WIRE 448 256 304 256
WIRE 528 256 528 208
WIRE 576 256 576 240
WIRE 736 256 736 144
WIRE 320 304 320 240
WIRE 384 304 320 304
WIRE 304 352 304 256
WIRE 320 352 304 352
WIRE 576 384 576 336
WIRE 16 464 16 320
WIRE 288 464 288 128
WIRE 288 464 16 464
WIRE 384 464 384 400
WIRE 384 464 288 464
WIRE 432 464 384 464
WIRE 528 464 528 256
WIRE 528 464 512 464
WIRE 576 464 528 464
WIRE 736 464 736 320
WIRE 736 464 576 464
SYMBOL res 560 128 R0
SYMATTR InstName R1
SYMATTR Value 120
SYMBOL res 560 240 R0
SYMATTR InstName R2
SYMATTR Value 470
SYMBOL res 560 368 R0
SYMATTR InstName R3
SYMATTR Value 220
SYMBOL res 544 240 R90
WINDOW 0 0 56 VBottom 2
WINDOW 3 32 56 VTop 2
SYMATTR InstName R4
SYMATTR Value 100
SYMBOL res 528 448 R90
WINDOW 0 0 56 VBottom 2
WINDOW 3 32 56 VTop 2
SYMATTR InstName R5
SYMATTR Value 0.56
SYMBOL cap 544 208 R180
WINDOW 0 24 56 Left 2
WINDOW 3 24 8 Left 2
SYMATTR InstName C1
SYMATTR Value 220n
SYMBOL cap 176 224 R180
WINDOW 0 24 56 Left 2
WINDOW 3 24 8 Left 2
SYMATTR InstName C2
SYMATTR Value 1000µ
SYMBOL cap 224 224 R180
WINDOW 0 24 56 Left 2
WINDOW 3 24 8 Left 2
SYMATTR InstName C3
SYMATTR Value 220n
SYMBOL npn 320 304 R0
SYMATTR InstName Q1
SYMBOL Misc/cell 736 256 R0
SYMATTR InstName V1
SYMATTR Value 12
SYMBOL voltage 16 224 R0
SYMATTR InstName V2
SYMATTR Value 15
SYMBOL PowerProducts/LT1963A 336 -32 R0
SYMATTR InstName U1
TEXT 616 -192 Left 2 !.tran 0.1 1
