Version 4
SHEET 1 880 680
SYMBOL voltage 192 240 R0
SYMATTR InstName V1
