Version 4
SHEET 1 880 680
WIRE -288 -416 -432 -416
WIRE -192 -416 -288 -416
WIRE -192 -384 -192 -416
WIRE 512 -336 192 -336
WIRE 608 -336 512 -336
WIRE -480 -320 -480 -448
WIRE -432 -320 -432 -336
WIRE -432 -320 -480 -320
WIRE -192 -288 -192 -304
WIRE 16 -288 -192 -288
WIRE 160 -288 96 -288
WIRE 192 -288 192 -336
WIRE 192 -288 160 -288
WIRE 240 -288 192 -288
WIRE 448 -288 368 -288
WIRE 160 -256 160 -288
WIRE -288 -208 -288 -416
WIRE -176 -208 -208 -208
WIRE -64 -208 -112 -208
WIRE 64 -208 0 -208
WIRE 240 -192 160 -192
WIRE 512 -192 512 -240
WIRE 512 -192 368 -192
WIRE -64 -160 -64 -208
WIRE -336 -128 -400 -128
WIRE -336 -112 -336 -128
WIRE -288 -112 -336 -112
WIRE -176 -112 -208 -112
WIRE -64 -112 -64 -160
WIRE -64 -112 -112 -112
WIRE -480 -48 -480 -320
WIRE -464 -48 -480 -48
WIRE -400 -48 -464 -48
WIRE 0 -48 0 -112
WIRE 0 -48 -400 -48
WIRE 64 -48 64 -144
WIRE 64 -48 0 -48
WIRE 240 -48 240 -192
WIRE 240 -48 64 -48
WIRE 368 -48 368 -192
WIRE 368 -48 240 -48
FLAG -464 -48 0
SYMBOL voltage -480 -544 R0
SYMATTR InstName V1
SYMATTR Value 5
SYMBOL voltage -432 -432 R0
SYMATTR InstName V2
SYMATTR Value SINE(1 1 15000)
SYMBOL Trafo\\750082107 240 -288 R0
SYMATTR InstName U2
SYMBOL ind -304 -192 R270
WINDOW 0 32 56 VTop 2
WINDOW 3 5 56 VBottom 2
SYMATTR InstName L1
SYMATTR Value 1µ
SYMBOL ind -304 -96 R270
WINDOW 0 32 56 VTop 2
WINDOW 3 5 56 VBottom 2
SYMATTR InstName L2
SYMATTR Value 1µ
SYMBOL cap -112 -224 R90
WINDOW 0 0 32 VBottom 2
WINDOW 3 32 32 VTop 2
SYMATTR InstName C1
SYMATTR Value 1n
SYMBOL cap -112 -128 R90
WINDOW 0 0 32 VBottom 2
WINDOW 3 32 32 VTop 2
SYMATTR InstName C2
SYMATTR Value 1n
SYMBOL npn -64 -208 R0
SYMATTR InstName Q1
SYMBOL cap 48 -208 R0
SYMATTR InstName C3
SYMATTR Value 1n
SYMBOL voltage -400 -144 R0
WINDOW 123 0 0 Left 2
WINDOW 39 0 0 Left 2
SYMATTR InstName V3
SYMATTR Value SINE(1 1 1500000)
SYMBOL npn 448 -336 R0
SYMATTR InstName Q3
SYMBOL varactor 144 -256 R0
SYMATTR InstName D1
SYMBOL ind 112 -272 M270
WINDOW 0 32 56 VTop 2
WINDOW 3 5 56 VBottom 2
SYMATTR InstName L3
SYMATTR Value 1n
SYMBOL res -208 -400 R0
SYMATTR InstName R1
SYMATTR Value 50
TEXT -514 -24 Left 2 !.tran 0.001
