Version 4
SHEET 1 916 680
WIRE 768 112 672 112
WIRE 736 160 704 160
WIRE 592 208 256 208
WIRE 672 208 672 112
WIRE 736 224 720 224
WIRE 768 288 768 272
WIRE 912 288 768 288
WIRE 480 304 464 304
WIRE 560 320 560 304
WIRE 704 384 704 160
WIRE 464 336 464 304
WIRE 880 336 880 192
WIRE 880 336 816 336
WIRE 384 352 384 336
WIRE 720 368 720 224
WIRE 720 368 624 368
WIRE 624 384 624 368
WIRE 624 384 560 384
WIRE 800 384 704 384
WIRE 704 416 672 416
WIRE 800 416 800 384
WIRE 800 416 784 416
WIRE 816 416 800 416
WIRE 256 464 256 208
WIRE 288 464 256 464
WIRE 384 464 384 432
WIRE 384 464 288 464
WIRE 560 464 384 464
WIRE 672 464 672 416
WIRE 672 464 560 464
WIRE 912 464 912 288
WIRE 912 464 672 464
FLAG 288 464 0
SYMBOL voltage 384 336 R0
SYMATTR InstName V1
SYMATTR Value SINE(0.002 0.002 100000000)
SYMBOL ind 464 320 R270
WINDOW 0 32 56 VTop 2
WINDOW 3 5 56 VBottom 2
SYMATTR InstName L1
SYMATTR Value 1.59µ
SYMBOL cap 576 384 R180
WINDOW 0 24 56 Left 2
WINDOW 3 24 8 Left 2
SYMATTR InstName C1
SYMATTR Value 1.76p
SYMBOL voltage 688 208 R90
WINDOW 0 -32 56 VBottom 2
WINDOW 3 32 56 VTop 2
SYMATTR InstName V2
SYMATTR Value 5
SYMBOL res 800 320 R0
SYMATTR InstName R1
SYMATTR Value 100k
SYMBOL res 800 400 R90
WINDOW 0 0 56 VBottom 2
WINDOW 3 32 56 VTop 2
SYMATTR InstName R2
SYMATTR Value 10k
SYMBOL Opamps/LT6200 768 192 R0
SYMATTR InstName U1
SYMBOL res 480 320 R90
WINDOW 0 0 56 VBottom 2
WINDOW 3 32 56 VTop 2
SYMATTR InstName R3
SYMATTR Value 50
SYMBOL res 544 368 R0
SYMATTR InstName R4
SYMATTR Value 50
TEXT 384 120 Left 2 !.tran 0.000001
