Version 4
SHEET 1 880 680
WIRE 480 112 336 112
WIRE 640 112 480 112
WIRE 336 192 240 192
WIRE 480 208 480 192
WIRE 560 208 480 208
WIRE 480 240 480 208
WIRE 640 240 640 192
WIRE 416 288 288 288
WIRE 576 288 560 288
WIRE 544 336 480 336
WIRE 640 336 544 336
WIRE 288 352 288 288
WIRE 544 352 544 336
WIRE 240 432 240 192
WIRE 288 432 240 432
WIRE 544 432 288 432
SYMBOL voltage 336 96 R0
SYMATTR InstName V1
SYMATTR Value 5
SYMBOL voltage 288 336 R0
SYMATTR InstName V2
SYMATTR Value SINE(5 5 100)
SYMBOL npn 416 240 R0
SYMATTR InstName Q1
SYMBOL npn 576 240 R0
SYMATTR InstName Q2
SYMBOL res 528 336 R0
SYMATTR InstName R1
SYMBOL res 464 96 R0
SYMATTR InstName R2
SYMATTR Value 1.5k
SYMBOL res 624 96 R0
SYMATTR InstName R3
SYMATTR Value 1k
SYMBOL res 544 192 R0
SYMATTR InstName R4
SYMATTR Value 10k
