Version 4
SHEET 1 880 680
SYMBOL WE/750032052 128 224 R0
SYMATTR InstName U1
SYMBOL WE/750032052 528 224 R0
SYMATTR InstName U2
