Version 4
SHEET 1 4564 1052
WIRE 2320 -1184 2240 -1184
WIRE 2416 -1184 2400 -1184
WIRE 2096 -1136 2064 -1136
WIRE 2096 -1120 2096 -1136
WIRE 2128 -1120 2096 -1120
WIRE 2240 -1120 2240 -1184
WIRE 2240 -1120 2208 -1120
WIRE 2256 -1120 2240 -1120
WIRE 2416 -1104 2416 -1184
WIRE 2416 -1104 2320 -1104
WIRE 2128 -1088 2096 -1088
WIRE 2240 -1088 2208 -1088
WIRE 2256 -1088 2240 -1088
WIRE 2064 -1056 2064 -1072
WIRE 2096 -1056 2096 -1088
WIRE 2096 -1056 2064 -1056
WIRE 2240 -1040 2240 -1088
WIRE 2240 -944 2240 -960
WIRE 2240 -848 2240 -864
WIRE 2288 -848 2288 -1072
WIRE 2288 -848 2240 -848
WIRE 2288 -816 2288 -848
WIRE 640 -576 432 -576
WIRE 880 -576 672 -576
WIRE 1120 -576 912 -576
WIRE 1360 -576 1152 -576
WIRE 3120 -512 2816 -512
WIRE 432 -464 432 -576
WIRE 448 -464 432 -464
WIRE 656 -464 608 -464
WIRE 672 -464 672 -576
WIRE 688 -464 672 -464
WIRE 896 -464 848 -464
WIRE 912 -464 912 -576
WIRE 928 -464 912 -464
WIRE 1136 -464 1088 -464
WIRE 1152 -464 1152 -576
WIRE 1168 -464 1152 -464
WIRE 1392 -464 1328 -464
WIRE 2816 -432 2000 -432
WIRE 448 -416 432 -416
WIRE 640 -416 640 -576
WIRE 640 -416 624 -416
WIRE 656 -416 656 -464
WIRE 688 -416 656 -416
WIRE 880 -416 880 -576
WIRE 880 -416 864 -416
WIRE 896 -416 896 -464
WIRE 928 -416 896 -416
WIRE 1120 -416 1120 -576
WIRE 1120 -416 1104 -416
WIRE 1136 -416 1136 -464
WIRE 1168 -416 1136 -416
WIRE 1360 -416 1360 -576
WIRE 1360 -416 1344 -416
WIRE 3120 -320 3120 -512
WIRE 3120 -320 3008 -320
WIRE 2000 -288 2000 -432
WIRE 2000 -288 1344 -288
WIRE 1184 -240 448 -240
WIRE 1648 -240 1184 -240
WIRE 4016 -240 3808 -240
WIRE 2256 -224 2144 -224
WIRE 3120 -208 3120 -240
WIRE 3232 -208 3120 -208
WIRE 3472 -208 3232 -208
WIRE 3120 -192 3120 -208
WIRE 3776 -192 3632 -192
WIRE 3840 -192 3776 -192
WIRE 4016 -192 4016 -240
WIRE -112 -176 -480 -176
WIRE 2816 -176 2816 -272
WIRE 2928 -176 2896 -176
WIRE 3008 -176 3008 -240
WIRE 3008 -176 2928 -176
WIRE -112 -160 -112 -176
WIRE 144 -160 -112 -160
WIRE 448 -160 448 -240
WIRE 448 -160 144 -160
WIRE 1520 -144 1440 -144
WIRE 2144 -144 2144 -224
WIRE 2144 -144 2064 -144
WIRE 2160 -144 2144 -144
WIRE 2256 -144 2256 -160
WIRE 2384 -144 2384 -176
WIRE 2384 -144 2256 -144
WIRE 3008 -144 3008 -176
WIRE 3056 -144 3008 -144
WIRE 3232 -144 3232 -208
WIRE 3392 -144 3312 -144
WIRE 3472 -144 3472 -208
WIRE 3472 -144 3392 -144
WIRE 3584 -144 3488 -144
WIRE 4272 -144 4064 -144
WIRE 4368 -144 4336 -144
WIRE 4416 -144 4368 -144
WIRE 816 -128 672 -128
WIRE 1248 -128 1104 -128
WIRE 2512 -128 2512 -176
WIRE 3488 -128 3488 -144
WIRE 3584 -128 3584 -144
WIRE 3808 -128 3808 -240
WIRE 3808 -128 3776 -128
WIRE 3776 -112 3776 -128
WIRE 4368 -112 4368 -144
WIRE 4496 -112 4496 -144
WIRE 144 -96 144 -160
WIRE 192 -96 144 -96
WIRE 432 -96 432 -416
WIRE 432 -96 416 -96
WIRE 672 -96 672 -128
WIRE 672 -96 432 -96
WIRE 3632 -96 3632 -112
WIRE 3648 -96 3632 -96
WIRE 4016 -96 4016 -112
WIRE 4016 -96 3936 -96
WIRE 3632 -80 3632 -96
WIRE 3840 -80 3840 -128
WIRE 3888 -80 3840 -80
WIRE 4016 -80 4016 -96
WIRE -192 -64 -432 -64
WIRE 2144 -64 2064 -64
WIRE 2160 -64 2144 -64
WIRE 2256 -64 2256 -80
WIRE 816 -48 768 -48
WIRE 1136 -48 1104 -48
WIRE 3008 -48 3008 -144
WIRE 3120 -48 3120 -96
WIRE 3488 -48 3312 -48
WIRE 4064 -48 4064 -64
WIRE 4160 -48 4064 -48
WIRE -192 -32 -192 -64
WIRE 4368 -32 4240 -32
WIRE 4496 -32 4496 -48
WIRE 4496 -32 4368 -32
WIRE 192 -16 144 -16
WIRE 448 -16 448 -160
WIRE 448 -16 416 -16
WIRE 544 -16 448 -16
WIRE 3936 48 3936 -96
WIRE 2144 0 2144 -64
WIRE 2256 0 2144 0
WIRE 3776 0 3776 -48
WIRE 3776 0 3632 0
WIRE 3824 0 3776 0
WIRE 3888 0 3888 -80
WIRE 4016 0 3888 0
WIRE -480 32 -480 -96
WIRE -432 32 -432 16
WIRE -432 32 -480 32
WIRE -112 32 -112 -160
WIRE 784 32 768 32
WIRE 816 32 784 32
WIRE 1184 32 1184 -240
WIRE 1184 32 1104 32
WIRE 3312 32 3120 32
WIRE -432 48 -432 32
WIRE -192 48 -208 48
WIRE -144 48 -192 48
WIRE 3472 48 3472 -144
WIRE 3936 48 3472 48
WIRE -352 64 -352 32
WIRE 0 64 -80 64
WIRE 192 64 80 64
WIRE 544 64 416 64
WIRE 1440 64 1440 -144
WIRE 3936 64 3824 64
WIRE -144 80 -192 80
WIRE 1888 80 1856 80
WIRE 784 112 768 112
WIRE 816 112 784 112
WIRE -192 128 -192 80
WIRE 80 128 80 64
WIRE 80 128 -192 128
WIRE 3392 128 3392 -80
WIRE 3392 128 3280 128
WIRE 3536 128 3392 128
WIRE 3584 128 3584 -48
WIRE 3584 128 3536 128
WIRE 3648 128 3648 -96
WIRE 3648 128 3584 128
WIRE 3888 128 3648 128
WIRE 4160 128 4160 -48
WIRE 4160 128 3888 128
WIRE 4240 128 4240 -32
WIRE 4240 128 4160 128
WIRE 448 144 448 48
WIRE 544 144 448 144
WIRE -208 160 -208 48
WIRE -160 160 -208 160
WIRE -80 160 -80 64
WIRE 1248 160 1248 -128
WIRE 1792 160 1248 160
WIRE 1856 160 1856 144
WIRE 448 176 448 144
WIRE 1136 176 1136 -48
WIRE 1136 176 448 176
WIRE 1344 176 1344 -288
WIRE 1344 176 1136 176
WIRE 1440 176 1440 144
WIRE 1440 176 1344 176
WIRE 1648 176 1648 64
WIRE 1648 176 1440 176
WIRE 1888 176 1888 160
WIRE 1920 176 1920 64
WIRE 1920 176 1888 176
WIRE 3824 176 3824 64
WIRE -208 192 -208 160
WIRE -144 192 -208 192
WIRE -80 192 -80 160
WIRE -480 208 -480 192
WIRE 80 224 80 128
WIRE 80 224 64 224
WIRE 1888 224 1888 176
WIRE 1888 224 1856 224
WIRE 1648 240 1648 176
WIRE 1920 240 1648 240
WIRE 1936 240 1936 64
WIRE 1936 240 1920 240
WIRE -480 256 -480 208
WIRE -112 256 -112 96
WIRE -112 256 -480 256
WIRE 3888 256 3888 128
WIRE 3888 256 3824 256
WIRE 3936 256 3888 256
WIRE -480 304 -480 256
WIRE -464 304 -480 304
WIRE -112 304 -112 256
WIRE 64 304 -112 304
WIRE 144 304 144 -16
WIRE 144 304 64 304
WIRE 448 304 448 176
WIRE 448 304 144 304
WIRE 448 352 448 304
WIRE 1936 352 1936 240
WIRE 1936 352 448 352
WIRE 2144 352 2144 0
WIRE 2144 352 1936 352
WIRE 2384 352 2384 -80
WIRE 2384 352 2144 352
WIRE 2512 352 2512 -80
WIRE 2512 352 2384 352
WIRE 2928 352 2928 -112
WIRE 2928 352 2512 352
WIRE 3008 352 3008 32
WIRE 3008 352 2928 352
WIRE 3120 352 3120 32
WIRE 3120 352 3008 352
WIRE 3280 352 3280 128
WIRE 3280 352 3120 352
FLAG -464 304 0
FLAG -480 208 GND
IOPIN -480 208 Out
FLAG -432 48 GND
IOPIN -432 48 In
FLAG -352 64 GND
IOPIN -352 64 In
FLAG 768 -48 GND
IOPIN 768 -48 In
FLAG 784 32 GND
IOPIN 784 32 In
FLAG 784 112 GND
IOPIN 784 112 In
FLAG 3536 128 0
FLAG 2288 -816 GND
IOPIN 2288 -816 In
FLAG 1792 160 RFMOD
IOPIN 1792 160 Out
FLAG 2816 -272 RFMOD
IOPIN 2816 -272 In
SYMBOL voltage -480 -192 R0
SYMATTR InstName V1
SYMATTR Value 5
SYMBOL SpecialFunctions/LTC6990 304 -16 R0
SYMATTR InstName U2
SYMBOL cap 432 -16 R0
SYMATTR InstName C3
SYMATTR Value 100n
SYMBOL res 48 208 R0
SYMATTR InstName R7
SYMATTR Value 249k
SYMBOL res 96 48 R90
WINDOW 0 0 56 VBottom 2
WINDOW 3 32 56 VTop 2
SYMATTR InstName R8
SYMATTR Value 75k
SYMBOL Opamps/LTC6078 -112 64 R0
SYMATTR InstName U3
SYMBOL res -208 -48 R0
SYMATTR InstName R9
SYMATTR Value 100k
SYMBOL res -64 144 R90
WINDOW 0 0 56 VBottom 2
WINDOW 3 32 56 VTop 2
SYMATTR InstName R10
SYMATTR Value 30.1k
SYMBOL cap -80 176 R90
WINDOW 0 0 32 VBottom 2
WINDOW 3 32 32 VTop 2
SYMATTR InstName C4
SYMATTR Value 33p
SYMBOL res 528 48 R0
SYMATTR InstName R11
SYMATTR Value 280k
SYMBOL res 528 -32 R0
SYMATTR InstName R12
SYMATTR Value 1m
SYMBOL voltage -352 -64 R0
SYMATTR InstName V12
SYMATTR Value wavefile="/Users/dominikguz/Downloads/ltsound1.wav"
SYMBOL voltage -432 -80 R0
SYMATTR InstName V2
SYMATTR Value SINE(1 1 15000)
SYMATTR Value2 AC 1
SYMBOL FilterProducts/LTC1565 960 -16 R0
SYMATTR InstName U4
SYMBOL Digital/dflop 528 -512 R0
WINDOW 3 8 6 Left 2
SYMATTR Value Vhigh=5
SYMATTR InstName A1
SYMBOL Digital/dflop 768 -512 R0
WINDOW 3 8 6 Left 2
SYMATTR Value Vhigh=5
SYMATTR InstName A2
SYMBOL Digital/dflop 1008 -512 R0
WINDOW 3 8 6 Left 2
SYMATTR Value Vhigh=5
SYMATTR InstName A3
SYMBOL Digital/dflop 1248 -512 R0
WINDOW 3 8 6 Left 2
SYMATTR Value Vhigh=6
SYMATTR InstName A4
SYMBOL rf/sa612 1760 -96 R0
SYMATTR InstName X1
SYMBOL cap 1840 80 R0
SYMATTR InstName C7
SYMATTR Value 47p
SYMBOL cap 1840 160 R0
SYMATTR InstName C8
SYMATTR Value 220p
SYMBOL ind2 1872 64 R0
SYMATTR InstName L2
SYMATTR Value 250n
SYMATTR Type ind
SYMBOL cap 2240 -144 R0
SYMATTR InstName C10
SYMATTR Value 560p
SYMBOL ind2 2144 -160 R0
SYMATTR InstName L3
SYMATTR Value 400µ
SYMATTR Type ind
SYMBOL cap 2240 -64 R0
SYMATTR InstName C11
SYMATTR Value 100n
SYMBOL cap 2240 -224 R0
SYMATTR InstName C12
SYMATTR Value 330p
SYMBOL voltage 1440 48 R0
SYMATTR InstName V3
SYMATTR Value SINE(1 1 14000000)
SYMBOL voltage 2816 -528 R0
SYMATTR InstName V4
SYMATTR Value 12
SYMBOL WE/750032052 2384 -176 R0
SYMATTR InstName U5
SYMBOL cap 1904 176 R0
SYMATTR InstName C2
SYMATTR Value 100n
SYMBOL ind2 3568 -144 R0
WINDOW 0 -43 59 Left 2
WINDOW 3 -65 90 Left 2
SYMATTR InstName L1
SYMATTR Value 500µ
SYMATTR Type ind
SYMBOL ind2 3648 -208 M0
WINDOW 0 -67 33 Left 2
WINDOW 3 -90 61 Left 2
SYMATTR InstName L4
SYMATTR Value 625µh
SYMATTR Type ind
SYMBOL ind2 3648 -96 M0
WINDOW 0 -64 71 Left 2
WINDOW 3 -90 48 Left 2
SYMATTR InstName L5
SYMATTR Value 625µh
SYMATTR Type ind
SYMBOL ind2 4080 -48 R180
WINDOW 0 36 80 Left 2
WINDOW 3 36 40 Left 2
SYMATTR InstName L6
SYMATTR Value 500µh
SYMATTR Type ind
SYMBOL ind2 4000 16 M180
WINDOW 0 36 80 Left 2
WINDOW 3 36 40 Left 2
SYMATTR InstName L7
SYMATTR Value 625µh
SYMATTR Type ind
SYMBOL ind2 4000 -96 M180
WINDOW 0 36 80 Left 2
WINDOW 3 36 40 Left 2
SYMATTR InstName L8
SYMATTR Value 625µh
SYMATTR Type ind
SYMBOL diode 3824 -192 R0
SYMATTR InstName D1
SYMBOL diode 3888 -16 R90
WINDOW 0 0 32 VBottom 2
WINDOW 3 32 32 VTop 2
SYMATTR InstName D2
SYMBOL diode 3792 -48 R180
WINDOW 0 24 64 Left 2
WINDOW 3 24 0 Left 2
SYMATTR InstName D3
SYMBOL diode 3792 -128 R180
WINDOW 0 24 64 Left 2
WINDOW 3 24 0 Left 2
SYMATTR InstName D4
SYMBOL voltage 3824 160 R0
SYMATTR InstName V9
SYMATTR Value wavefile="/Users/dominikguz/Downloads/ltsound1.wav"
SYMBOL res 4512 -160 R90
WINDOW 0 0 56 VBottom 2
WINDOW 3 32 56 VTop 2
SYMATTR InstName R4
SYMATTR Value 150
SYMBOL cap 4480 -112 R0
SYMATTR InstName C5
SYMATTR Value 100p
SYMBOL cap 4336 -160 R90
WINDOW 0 0 32 VBottom 2
WINDOW 3 32 32 VTop 2
SYMATTR InstName C9
SYMATTR Value 100p
SYMBOL res 4352 -128 R0
SYMATTR InstName R5
SYMATTR Value 160
SYMBOL UniversalOpamp 2288 -1104 R0
WINDOW 0 -26 -1 Left 2
SYMATTR InstName U1
SYMBOL res 2416 -1200 R90
WINDOW 0 -32 61 VBottom 2
WINDOW 3 -29 61 VTop 2
SYMATTR InstName R1
SYMATTR Value 1000k
SYMBOL res 2224 -1136 R90
WINDOW 0 -36 63 VBottom 2
WINDOW 3 -33 61 VTop 2
SYMATTR InstName R6
SYMATTR Value 10k
SYMBOL res 2224 -1104 R90
WINDOW 0 58 57 VBottom 2
WINDOW 3 64 54 VTop 2
SYMATTR InstName R17
SYMATTR Value 10k
SYMBOL res 2256 -944 R180
WINDOW 0 -42 64 Left 2
WINDOW 3 -64 35 Left 2
SYMATTR InstName R18
SYMATTR Value 1000k
SYMBOL voltage 2240 -960 R0
WINDOW 0 -76 16 Left 2
WINDOW 123 0 0 Left 2
WINDOW 39 0 0 Left 2
WINDOW 3 -81 48 Left 2
SYMATTR InstName V6
SYMATTR Value 2.5V
SYMBOL cap 2048 -1136 R0
WINDOW 0 -34 17 Left 2
WINDOW 3 -51 57 Left 2
SYMATTR InstName C1
SYMATTR Value .001e-6
SYMBOL npn 3056 -192 R0
SYMATTR InstName Q1
SYMATTR Value 2N2222
SYMBOL res 3104 -336 R0
SYMATTR InstName R2
SYMATTR Value 12k
SYMBOL res 3104 -64 R0
SYMATTR InstName R13
SYMATTR Value 1k
SYMBOL res 2992 -64 R0
SYMATTR InstName R14
SYMATTR Value 10k
SYMBOL res 2992 -336 R0
SYMATTR InstName R15
SYMATTR Value 110k
SYMBOL ind2 2800 -160 R270
WINDOW 0 32 56 VTop 2
WINDOW 3 5 56 VBottom 2
SYMATTR InstName L9
SYMATTR Value 1µ
SYMATTR Type ind
SYMBOL cap 2912 -176 R0
SYMATTR InstName C6
SYMATTR Value 1µ
SYMBOL voltage 3312 -64 R0
SYMATTR InstName V5
SYMATTR Value SINE(2 2 10000000)
SYMBOL ind 3216 -128 R270
WINDOW 0 32 56 VTop 2
WINDOW 3 5 56 VBottom 2
SYMATTR InstName L10
SYMATTR Value 0.0000252
SYMBOL cap 3376 -144 R0
SYMATTR InstName C13
SYMATTR Value 1n
SYMBOL res 3472 -144 R0
SYMATTR InstName R16
SYMATTR Value 50
TEXT 2120 144 Left 2 !.MEAS TRAN t2 V(n019) WHEN V(n019) = 0.005 rise=1
TEXT 80 -784 Left 2 ;.ac lin 200 10e2 20e4 ;tran 100usec
TEXT 0 -480 Left 2 !.tran 100usec
TEXT 3536 -224 Left 2 !k1 L1 L4 L5 .90
TEXT 3544 -160 Left 2 ;Vin
TEXT 3488 -256 Left 2 ;T37-6 core; 4:14:14 turns
TEXT 4112 32 Right 2 !k2 L6 L7 L8 .90
TEXT 4160 96 Right 2 ;Input matching network
TEXT 4104 -32 Right 2 ;Vin
TEXT 4160 64 Right 2 ;T37-6 core; 4:14:14 turns
TEXT 2304 -1064 Left 2 ;Audio ampliifier
TEXT 2280 -904 Left 2 ;Op-amp bias
