Version 4
SHEET 1 2564 680
WIRE 640 -576 432 -576
WIRE 880 -576 672 -576
WIRE 1120 -576 912 -576
WIRE 1360 -576 1152 -576
WIRE 432 -464 432 -576
WIRE 448 -464 432 -464
WIRE 656 -464 608 -464
WIRE 672 -464 672 -576
WIRE 688 -464 672 -464
WIRE 896 -464 848 -464
WIRE 912 -464 912 -576
WIRE 928 -464 912 -464
WIRE 1136 -464 1088 -464
WIRE 1152 -464 1152 -576
WIRE 1168 -464 1152 -464
WIRE 1392 -464 1328 -464
WIRE 448 -416 432 -416
WIRE 640 -416 640 -576
WIRE 640 -416 624 -416
WIRE 656 -416 656 -464
WIRE 688 -416 656 -416
WIRE 880 -416 880 -576
WIRE 880 -416 864 -416
WIRE 896 -416 896 -464
WIRE 928 -416 896 -416
WIRE 1120 -416 1120 -576
WIRE 1120 -416 1104 -416
WIRE 1136 -416 1136 -464
WIRE 1168 -416 1136 -416
WIRE 1360 -416 1360 -576
WIRE 1360 -416 1344 -416
WIRE 1392 -336 1392 -464
WIRE 1392 -336 784 -336
WIRE 1184 -240 448 -240
WIRE 1408 -240 1184 -240
WIRE -112 -176 -480 -176
WIRE -112 -160 -112 -176
WIRE 144 -160 -112 -160
WIRE 448 -160 448 -240
WIRE 448 -160 144 -160
WIRE 672 -128 672 -160
WIRE 816 -128 672 -128
WIRE 1328 -128 1104 -128
WIRE 144 -96 144 -160
WIRE 192 -96 144 -96
WIRE 432 -96 432 -416
WIRE 432 -96 416 -96
WIRE 672 -96 672 -128
WIRE 672 -96 432 -96
WIRE -192 -64 -432 -64
WIRE 816 -48 768 -48
WIRE 1136 -48 1104 -48
WIRE -192 -32 -192 -64
WIRE 192 -16 144 -16
WIRE 448 -16 448 -160
WIRE 448 -16 416 -16
WIRE 544 -16 448 -16
WIRE -480 32 -480 -96
WIRE -432 32 -432 16
WIRE -432 32 -480 32
WIRE -352 32 -432 32
WIRE -112 32 -112 -160
WIRE 768 32 768 -48
WIRE 816 32 768 32
WIRE 1184 32 1184 -240
WIRE 1184 32 1104 32
WIRE -192 48 -208 48
WIRE -144 48 -192 48
WIRE 0 64 -80 64
WIRE 192 64 80 64
WIRE 544 64 416 64
WIRE -144 80 -192 80
WIRE 768 112 768 32
WIRE 816 112 768 112
WIRE -192 128 -192 80
WIRE 80 128 80 64
WIRE 80 128 -192 128
WIRE 448 144 448 48
WIRE 544 144 448 144
WIRE -208 160 -208 48
WIRE -160 160 -208 160
WIRE -80 160 -80 64
WIRE 448 176 448 144
WIRE 768 176 768 112
WIRE 768 176 448 176
WIRE 1136 176 1136 -48
WIRE 1136 176 768 176
WIRE 1456 176 1136 176
WIRE -208 192 -208 160
WIRE -144 192 -208 192
WIRE -80 192 -80 160
WIRE 80 224 80 128
WIRE 80 224 64 224
WIRE -480 304 -480 32
WIRE -464 304 -480 304
WIRE -112 304 -112 96
WIRE -112 304 -464 304
WIRE 64 304 -112 304
WIRE 144 304 144 -16
WIRE 144 304 64 304
WIRE 448 304 448 176
WIRE 448 304 144 304
FLAG -464 304 0
SYMBOL voltage -480 -192 R0
SYMATTR InstName V1
SYMATTR Value 5
SYMBOL SpecialFunctions/LTC6990 304 -16 R0
SYMATTR InstName U2
SYMBOL cap 432 -16 R0
SYMATTR InstName C3
SYMATTR Value 100n
SYMBOL res 48 208 R0
SYMATTR InstName R7
SYMATTR Value 249k
SYMBOL res 96 48 R90
WINDOW 0 0 56 VBottom 2
WINDOW 3 32 56 VTop 2
SYMATTR InstName R8
SYMATTR Value 75k
SYMBOL Opamps/LTC6078 -112 64 R0
SYMATTR InstName U3
SYMBOL res -208 -48 R0
SYMATTR InstName R9
SYMATTR Value 100k
SYMBOL res -64 144 R90
WINDOW 0 0 56 VBottom 2
WINDOW 3 32 56 VTop 2
SYMATTR InstName R10
SYMATTR Value 30.1k
SYMBOL cap -80 176 R90
WINDOW 0 0 32 VBottom 2
WINDOW 3 32 32 VTop 2
SYMATTR InstName C4
SYMATTR Value 33p
SYMBOL res 528 48 R0
SYMATTR InstName R11
SYMATTR Value 280k
SYMBOL res 528 -32 R0
SYMATTR InstName R12
SYMATTR Value 1m
SYMBOL voltage -352 -64 R0
SYMATTR InstName V12
SYMATTR Value wavefile="/Users/dominikguz/Downloads/ltsound1.wav"
SYMBOL voltage -432 -80 R0
SYMATTR InstName V2
SYMATTR Value SINE(1 1 15000)
SYMBOL FilterProducts/LTC1565 960 -16 R0
SYMATTR InstName U4
SYMBOL Digital/dflop 528 -512 R0
WINDOW 3 8 6 Left 2
SYMATTR InstName A1
SYMATTR Value Vhigh=5
SYMBOL Digital/dflop 768 -512 R0
WINDOW 3 8 6 Left 2
SYMATTR InstName A2
SYMATTR Value Vhigh=5
SYMBOL Digital/dflop 1008 -512 R0
WINDOW 3 8 6 Left 2
SYMATTR InstName A3
SYMATTR Value Vhigh=5
SYMBOL Digital/dflop 1248 -512 R0
WINDOW 3 8 6 Left 2
SYMATTR InstName A4
SYMATTR Value Vhigh=6
TEXT 72 -376 Left 2 !.tran 10m
