Version 4
SHEET 1 2420 832
WIRE 528 -416 480 -416
WIRE 624 -416 528 -416
WIRE 2128 -416 1312 -416
WIRE 624 -384 624 -416
WIRE 400 -352 400 -416
WIRE 704 -352 704 -384
WIRE 528 -336 528 -352
WIRE 400 -224 400 -272
WIRE 416 -224 400 -224
WIRE 528 -224 528 -256
WIRE 528 -224 416 -224
WIRE 704 -224 704 -272
WIRE 704 -224 528 -224
WIRE 1312 -224 1312 -336
WIRE 1312 -224 704 -224
WIRE 2128 -192 2128 -416
WIRE 2128 -192 1600 -192
WIRE 1680 -112 1344 -112
WIRE 1936 -112 1680 -112
WIRE 2240 -112 1936 -112
WIRE 1344 -80 1344 -112
WIRE 1344 -80 928 -80
WIRE 928 -64 928 -80
WIRE 1936 -48 1936 -112
WIRE 1984 -48 1936 -48
WIRE 2416 -48 2208 -48
WIRE 704 16 704 -224
WIRE 928 16 704 16
WIRE 960 16 928 16
WIRE 992 16 960 16
WIRE 1088 16 992 16
WIRE 1344 16 1344 -80
WIRE 1344 16 1312 16
WIRE 1488 16 1344 16
WIRE 1600 16 1600 -192
WIRE 1488 32 1488 16
WIRE 1984 32 1936 32
WIRE 2240 32 2240 -112
WIRE 2240 32 2208 32
WIRE 2336 32 2240 32
WIRE 1408 64 1408 32
WIRE 1408 64 1392 64
WIRE 1440 64 1408 64
WIRE 1088 80 1056 80
WIRE 1392 80 1392 64
WIRE 1392 80 1312 80
WIRE 1680 80 1680 -112
WIRE 1600 96 1584 96
WIRE 1648 96 1600 96
WIRE 1056 112 1056 80
WIRE 1344 112 1056 112
WIRE 1792 112 1712 112
WIRE 1984 112 1872 112
WIRE 2336 112 2208 112
WIRE 1648 128 1600 128
WIRE 1088 144 272 144
WIRE 1344 144 1344 112
WIRE 1344 144 1312 144
WIRE 1392 144 1344 144
WIRE 1440 144 1392 144
WIRE 1456 144 1440 144
WIRE 1440 176 1328 176
WIRE 1600 176 1600 128
WIRE 1872 176 1872 112
WIRE 1872 176 1600 176
WIRE 2240 192 2240 96
WIRE 2336 192 2240 192
WIRE 1088 208 1056 208
WIRE 1328 208 1328 176
WIRE 1328 208 1312 208
WIRE 1344 208 1328 208
WIRE 1440 208 1440 176
WIRE 1536 208 1504 208
WIRE 1584 208 1584 96
WIRE 1632 208 1584 208
WIRE 1712 208 1712 112
WIRE 1584 240 1584 208
WIRE 1648 240 1584 240
WIRE 1712 240 1712 208
WIRE 1056 256 1056 208
WIRE 1488 256 1488 32
WIRE 1488 256 1056 256
WIRE 1872 272 1872 176
WIRE 1872 272 1856 272
WIRE 992 288 992 80
WIRE 1456 288 1456 144
WIRE 1456 288 992 288
WIRE 960 304 960 16
WIRE 1424 304 1424 208
WIRE 1424 304 960 304
WIRE 1424 352 1424 304
WIRE 1680 352 1680 144
WIRE 1680 352 1424 352
WIRE 1856 352 1680 352
WIRE 1936 352 1936 32
WIRE 1936 352 1856 352
WIRE 2240 352 2240 192
WIRE 2240 352 1936 352
FLAG 416 -224 0
SYMBOL voltage 928 -80 R0
SYMATTR InstName V8
SYMATTR Value 5
SYMBOL res 1440 192 R90
WINDOW 0 0 56 VBottom 2
WINDOW 3 32 56 VTop 2
SYMATTR InstName R9
SYMATTR Value 10k
SYMBOL cap 1504 192 R90
WINDOW 0 0 32 VBottom 2
WINDOW 3 32 32 VTop 2
SYMATTR InstName C6
SYMATTR Value 10µ
SYMBOL cap 976 16 R0
SYMATTR InstName C7
SYMATTR Value 100n
SYMBOL res 1424 48 R0
SYMATTR InstName R10
SYMATTR Value 1k
SYMBOL diode 1376 80 R0
SYMATTR InstName D1
SYMBOL res 1504 16 R90
WINDOW 0 0 56 VBottom 2
WINDOW 3 32 56 VTop 2
SYMATTR InstName R11
SYMATTR Value 1k
SYMBOL Robertugo/555_all 1248 128 R0
SYMATTR InstName U1
SYMBOL voltage 400 -368 R0
SYMATTR InstName V9
SYMATTR Value SINE(2 2 2000)
SYMBOL res 496 -432 R90
WINDOW 0 0 56 VBottom 2
WINDOW 3 32 56 VTop 2
SYMATTR InstName R12
SYMATTR Value 1k
SYMBOL voltage 704 -368 R0
SYMATTR InstName V10
SYMATTR Value SINE(2 2 10000)
SYMBOL res 720 -400 R90
WINDOW 0 0 56 VBottom 2
WINDOW 3 32 56 VTop 2
SYMATTR InstName R13
SYMATTR Value 1k
SYMBOL diode 512 -416 R0
SYMATTR InstName D2
SYMBOL res 512 -352 R0
SYMATTR InstName R14
SYMATTR Value 1k
SYMBOL voltage 1312 -432 R0
SYMATTR InstName V1
SYMATTR Value wavefile="/Users/dominikguz/Downloads/ltsound1.wav"
SYMBOL SpecialFunctions/LTC6990 2096 32 R0
SYMATTR InstName U2
SYMBOL cap 2224 32 R0
SYMATTR InstName C1
SYMATTR Value 100n
SYMBOL res 1840 256 R0
SYMATTR InstName R1
SYMATTR Value 249k
SYMBOL res 1888 96 R90
WINDOW 0 0 56 VBottom 2
WINDOW 3 32 56 VTop 2
SYMATTR InstName R2
SYMATTR Value 75k
SYMBOL Opamps/LTC6078 1680 112 R0
SYMATTR InstName U3
SYMBOL res 1584 0 R0
SYMATTR InstName R3
SYMATTR Value 100k
SYMBOL res 1728 192 R90
WINDOW 0 0 56 VBottom 2
WINDOW 3 32 56 VTop 2
SYMATTR InstName R4
SYMATTR Value 30.1k
SYMBOL cap 1712 224 R90
WINDOW 0 0 32 VBottom 2
WINDOW 3 32 32 VTop 2
SYMATTR InstName C2
SYMATTR Value 33p
SYMBOL res 2320 96 R0
SYMATTR InstName R5
SYMATTR Value 280k
SYMBOL res 2320 16 R0
SYMATTR InstName R6
SYMATTR Value 1m
TEXT -144 -168 Left 2 !.tran 10m
