Version 4
SHEET 1 880 680
WIRE 368 224 208 224
WIRE 288 272 272 272
WIRE 208 288 208 224
WIRE 240 288 208 288
WIRE 192 320 176 320
WIRE 240 320 192 320
WIRE 304 336 304 304
WIRE 336 336 304 336
WIRE 368 336 368 224
WIRE 368 336 336 336
WIRE 416 336 368 336
WIRE 432 336 416 336
WIRE 176 400 80 400
WIRE 176 416 176 400
WIRE 432 416 176 416
WIRE 80 496 80 400
FLAG 80 496 0
FLAG 320 304 VOUT
FLAG 192 320 Isrc
FLAG 416 336 Isrc
IOPIN 416 336 BiDir
FLAG 368 336 Isrc
IOPIN 368 336 BiDir
FLAG 336 336 Isrc
IOPIN 336 336 BiDir
SYMBOL Opamps/LT1001A 272 240 R0
SYMATTR InstName U1
SYMBOL voltage 176 304 R0
SYMATTR InstName V1
SYMATTR Value 12
SYMBOL res 416 320 R0
SYMATTR InstName R2
SYMATTR Value 10
TEXT -136 200 Left 2 !.tran 0.001 0.01
