Version 4
SHEET 1 980 848
WIRE -160 224 -208 224
WIRE -64 224 -160 224
WIRE 304 224 -64 224
WIRE 912 224 304 224
WIRE -704 256 -768 256
WIRE -576 256 -624 256
WIRE -336 256 -448 256
WIRE -304 256 -336 256
WIRE -208 256 -208 224
WIRE -208 256 -240 256
WIRE -64 256 -64 224
WIRE -576 288 -576 256
WIRE -448 288 -448 256
WIRE -288 320 -336 320
WIRE -208 320 -288 320
WIRE 304 320 304 224
WIRE 320 320 304 320
WIRE 624 320 576 320
WIRE 704 320 624 320
WIRE 768 320 704 320
WIRE 832 320 768 320
WIRE 912 320 912 224
WIRE -336 352 -336 320
WIRE -768 416 -768 336
WIRE -736 416 -768 416
WIRE -576 416 -576 368
WIRE -576 416 -736 416
WIRE -448 416 -448 368
WIRE -336 416 -448 416
WIRE -272 416 -336 416
WIRE -160 416 -160 224
WIRE -160 416 -208 416
WIRE 832 416 832 384
WIRE 912 416 912 384
WIRE 448 448 448 416
WIRE 624 448 624 400
WIRE 624 448 448 448
WIRE 704 496 704 400
WIRE 768 496 768 384
WIRE 768 496 704 496
WIRE 832 496 768 496
WIRE 912 496 832 496
WIRE 624 512 624 448
WIRE -288 544 -288 320
WIRE -240 544 -288 544
WIRE -64 544 -64 320
WIRE -64 544 -240 544
WIRE 304 544 -64 544
WIRE 304 592 304 544
WIRE 624 592 304 592
WIRE 704 592 704 496
WIRE 704 592 624 592
FLAG -736 416 0
FLAG -240 544 0
SYMBOL cap -224 256 R0
SYMATTR InstName C1
SYMATTR Value 6800µ
SYMBOL voltage -768 240 R0
SYMATTR InstName V1
SYMATTR Value SINE(0 230 60)
SYMBOL diode -320 320 R180
WINDOW 0 24 64 Left 2
WINDOW 3 24 0 Left 2
SYMATTR InstName D1
SYMBOL diode -352 352 R0
SYMATTR InstName D2
SYMBOL diode -272 432 R270
WINDOW 0 32 32 VTop 2
WINDOW 3 0 32 VBottom 2
SYMATTR InstName D3
SYMBOL diode -304 272 R270
WINDOW 0 32 32 VTop 2
WINDOW 3 0 32 VBottom 2
SYMATTR InstName D4
SYMBOL res 608 304 R0
SYMATTR InstName R1
SYMATTR Value 100
SYMBOL res 608 496 R0
SYMATTR InstName R2
SYMATTR Value 1020
SYMBOL LED 816 320 R0
SYMATTR InstName D6
SYMBOL LED 896 320 R0
SYMATTR InstName D7
SYMBOL res 816 400 R0
SYMATTR InstName R3
SYMATTR Value 680
SYMBOL res 896 400 R0
SYMATTR InstName R4
SYMATTR Value 680
SYMBOL ind2 -592 272 R0
SYMATTR InstName L2
SYMATTR Value 0.01
SYMATTR Type ind
SYMBOL ind2 -432 384 R180
WINDOW 0 36 80 Left 2
WINDOW 3 36 40 Left 2
SYMATTR InstName L3
SYMATTR Value 0.00009
SYMATTR Type ind
SYMBOL cap 752 320 R0
SYMATTR InstName C2
SYMATTR Value 1000µ
SYMBOL res -608 240 R90
WINDOW 0 0 56 VBottom 2
WINDOW 3 32 56 VTop 2
SYMATTR InstName R5
SYMATTR Value 0.05
SYMBOL PowerProducts/LT1083 448 320 R0
SYMATTR InstName U2
SYMBOL res 688 304 R0
SYMATTR InstName R7
SYMATTR Value 10
SYMBOL cap -80 256 R0
SYMATTR InstName C3
SYMATTR Value 1000µ
TEXT -712 56 Left 2 !.tran 0.1
TEXT -704 112 Left 2 !k1 L2 L3 .90
