Version 4
SHEET 1 880 680
WIRE 16 96 -48 96
WIRE 128 96 96 96
WIRE 448 96 256 96
WIRE -48 192 -48 176
WIRE 128 192 -48 192
WIRE 448 192 448 176
WIRE 448 192 256 192
WIRE -48 368 -48 192
WIRE 448 368 448 192
WIRE 448 368 -48 368
FLAG -48 368 0
SYMBOL 760871131 128 96 R0
SYMATTR InstName U1
SYMBOL voltage -48 80 R0
WINDOW 123 0 0 Left 2
WINDOW 39 0 0 Left 2
SYMATTR InstName V1
SYMATTR Value SINE(0 0.1 1000000)
SYMBOL res 112 80 R90
WINDOW 0 0 56 VBottom 2
WINDOW 3 32 56 VTop 2
SYMATTR InstName R1
SYMATTR Value 50
SYMBOL res 432 80 R0
SYMATTR InstName R2
SYMATTR Value 1000k
TEXT -82 392 Left 2 !.tran 0.00001
