Version 4
SHEET 1 880 680
WIRE 144 -240 -48 -240
WIRE 544 -240 368 -240
WIRE -48 -224 -48 -240
WIRE 144 -160 16 -160
WIRE 16 -144 16 -160
WIRE 16 -144 -48 -144
WIRE 144 -80 48 -80
WIRE 416 -80 368 -80
WIRE 16 -32 16 -144
WIRE 416 -32 416 -80
WIRE 416 -32 16 -32
WIRE 112 0 48 0
WIRE 272 64 48 64
WIRE 464 64 272 64
WIRE 112 112 112 0
WIRE 304 112 224 112
WIRE 48 128 48 64
WIRE 48 128 -16 128
WIRE 48 144 48 128
WIRE 112 144 112 112
WIRE 144 144 112 144
WIRE 272 144 272 64
WIRE 464 144 464 64
WIRE 192 160 192 112
WIRE 208 160 192 160
WIRE 224 160 224 112
WIRE 224 160 208 160
WIRE 240 160 224 160
WIRE 368 160 368 112
WIRE 368 160 336 160
WIRE 432 160 368 160
WIRE 336 176 336 160
WIRE 336 176 304 176
WIRE 240 192 176 192
WIRE 432 192 416 192
WIRE 416 208 416 192
WIRE 112 224 48 224
WIRE 176 224 176 192
WIRE 176 224 144 224
WIRE 208 224 208 160
WIRE 336 224 336 192
WIRE 336 224 304 224
WIRE 352 224 336 224
WIRE 16 240 16 -32
WIRE 112 240 112 224
WIRE 112 240 16 240
WIRE 352 240 352 224
WIRE 496 288 496 176
WIRE 496 288 416 288
WIRE 112 320 112 240
WIRE 176 320 176 304
WIRE 176 320 112 320
WIRE 272 320 272 208
WIRE 272 320 176 320
WIRE 352 320 272 320
WIRE 464 320 464 208
WIRE 464 320 352 320
WIRE -16 336 -16 128
WIRE 304 336 304 304
WIRE 304 336 -16 336
WIRE 208 352 208 304
WIRE 496 384 496 288
WIRE 144 432 144 400
WIRE 160 432 144 432
WIRE 272 448 272 320
WIRE 272 448 208 448
WIRE 144 496 144 432
WIRE 496 496 496 464
WIRE 496 496 144 496
FLAG 48 224 0
SYMBOL voltage 48 128 R0
WINDOW 123 0 0 Left 2
WINDOW 39 0 0 Left 2
SYMATTR InstName V1
SYMATTR Value 9
SYMBOL Opamps\\LT1001 272 112 R0
SYMATTR InstName U1
SYMBOL Opamps\\LT1001 464 112 R0
SYMATTR InstName U2
SYMBOL voltage 112 128 R0
WINDOW 123 0 0 Left 2
WINDOW 39 0 0 Left 2
SYMATTR InstName V2
SYMATTR Value SINE(1 1 100000)
SYMBOL cap 368 96 R90
WINDOW 0 0 32 VBottom 2
WINDOW 3 32 32 VTop 2
SYMATTR InstName C1
SYMATTR Value 50n
SYMBOL res 480 368 R0
SYMATTR InstName R1
SYMATTR Value 10k
SYMBOL res 208 96 R90
WINDOW 0 0 56 VBottom 2
WINDOW 3 32 56 VTop 2
SYMATTR InstName R2
SYMATTR Value 100k
SYMBOL res 224 320 R180
WINDOW 0 36 76 Left 2
WINDOW 3 36 40 Left 2
SYMATTR InstName R3
SYMATTR Value 50k
SYMBOL res 192 320 R180
WINDOW 0 36 76 Left 2
WINDOW 3 36 40 Left 2
SYMATTR InstName R4
SYMATTR Value 50k
SYMBOL res 160 240 R180
WINDOW 0 36 76 Left 2
WINDOW 3 36 40 Left 2
SYMATTR InstName R5
SYMATTR Value 50k
SYMBOL res 320 208 R270
WINDOW 0 32 56 VTop 2
WINDOW 3 0 56 VBottom 2
SYMATTR InstName R6
SYMATTR Value 10k
SYMBOL res 368 336 R180
WINDOW 0 36 76 Left 2
WINDOW 3 36 40 Left 2
SYMATTR InstName R7
SYMATTR Value 1k
SYMBOL res 320 320 R180
WINDOW 0 36 76 Left 2
WINDOW 3 36 40 Left 2
SYMATTR InstName R8
SYMATTR Value 1k
SYMBOL res 400 192 R0
SYMATTR InstName R9
SYMATTR Value 100k
SYMBOL SpecialFunctions\\LTC1799 256 -160 R0
SYMATTR InstName U3
SYMBOL voltage -48 -240 R0
WINDOW 123 0 0 Left 2
WINDOW 39 0 0 Left 2
SYMATTR InstName V3
SYMATTR Value 5
SYMBOL res 32 -96 R0
SYMATTR InstName R12
SYMATTR Value 1m
SYMBOL nmos 160 352 R0
SYMATTR InstName M1
TEXT -18 502 Left 2 !.tran 0.0001
