Version 4
SHEET 1 1540 680
WIRE 400 96 320 96
WIRE 640 96 400 96
WIRE 672 96 640 96
WIRE 784 96 752 96
WIRE 928 96 880 96
WIRE 944 96 928 96
WIRE 1280 96 1232 96
WIRE 1328 96 1280 96
WIRE 1392 96 1328 96
WIRE 1440 96 1392 96
WIRE 1472 96 1440 96
WIRE 1328 160 1280 160
WIRE 1392 160 1328 160
WIRE 1472 160 1472 96
WIRE 928 192 928 96
WIRE 944 192 928 192
WIRE 1424 192 1232 192
WIRE 1440 192 1440 176
WIRE 1440 192 1424 192
WIRE 320 288 320 96
WIRE 400 368 400 160
WIRE 400 368 320 368
WIRE 640 368 640 160
WIRE 640 368 400 368
WIRE 784 368 784 160
WIRE 784 368 640 368
WIRE 880 368 880 176
WIRE 880 368 784 368
WIRE 1088 368 1088 256
WIRE 1088 368 880 368
WIRE 1328 368 1328 160
WIRE 1328 368 1088 368
WIRE 1424 368 1424 272
WIRE 1424 368 1328 368
WIRE 1472 368 1472 240
WIRE 1472 368 1424 368
FLAG 320 368 0
SYMBOL voltage 320 272 R0
SYMATTR InstName V1
SYMATTR Value PULSE(0 12 0 0 0 0.0000001 0.0000002)
SYMBOL ind 656 112 R270
WINDOW 0 32 56 VTop 2
WINDOW 3 5 56 VBottom 2
SYMATTR InstName L1
SYMATTR Value 4.7µ
SYMBOL cap 768 96 R0
SYMATTR InstName C1
SYMATTR Value 200µ
SYMBOL schottky 624 96 R0
SYMATTR InstName D2
SYMATTR Value 1N5819
SYMBOL cap 384 96 R0
SYMATTR InstName C2
SYMATTR Value 400µ
SYMBOL PowerProducts/LT3022 1088 128 R0
SYMATTR InstName U1
SYMBOL cap 1264 96 R0
SYMATTR InstName C3
SYMATTR Value 100µ
SYMBOL cap 1312 96 R0
SYMATTR InstName C4
SYMATTR Value 10p
SYMBOL cap 1376 96 R0
SYMATTR InstName C5
SYMATTR Value 1n
SYMBOL res 1456 144 R0
SYMATTR InstName R1
SYMATTR Value 100
SYMBOL res 1408 176 R0
SYMATTR InstName R2
SYMATTR Value 200
SYMBOL res 1456 192 R180
WINDOW 0 36 76 Left 2
WINDOW 3 36 40 Left 2
SYMATTR InstName R3
SYMATTR Value 5000
SYMBOL voltage 880 80 R0
SYMATTR InstName V2
SYMATTR Value 5.5
TEXT 376 0 Left 2 !.tran 0.05 0.5
